9
Coordinates from ORCA-job /scratch/2841927.1.multiway.q/malonaldehyde_opt
  C   -4.39866545008157      1.07936027046817     -0.10084246879225
  C   -3.32243456380399      2.02015643605420      0.01007571315311
  C   -2.02819713000103      1.52390857945392     -0.08893659406253
  O   -1.76941498834747      0.25262296926075     -0.27562422477579
  O   -4.21145667103118     -0.15365487867098     -0.28058635592241
  H   -5.45145505509850      1.45475596481479     -0.02466251317705
  H   -1.13502817827678      2.17498495598068     -0.01533062608285
  H   -3.51066067616152      3.08988053053911      0.16983915655236
  H   -2.73185638129794     -0.19146407440064     -0.31756404489260
